* Mi libería del ejercicio k)
.MODEL DIODO_BV3 D(BV=3)
