Version 4
SHEET 1 880 680
WIRE 240 16 224 16
WIRE 240 48 224 48
WIRE 352 48 352 32
WIRE 368 48 352 48
WIRE 368 80 352 80
WIRE 240 96 224 96
WIRE -112 112 -112 96
WIRE -64 112 -64 16
WIRE -64 112 -112 112
WIRE 48 112 48 16
WIRE 96 112 96 96
WIRE 96 112 48 112
WIRE 352 112 352 80
WIRE 240 128 224 128
WIRE -64 160 -64 112
WIRE 48 160 48 112
FLAG 48 16 A
FLAG -64 16 B
FLAG -112 -16 nB
FLAG 96 -16 nA
FLAG 624 64 0
FLAG 224 16 A
FLAG 224 96 nA
FLAG 224 48 B
FLAG 224 128 nB
FLAG -64 240 0
FLAG 48 240 0
SYMBOL voltage -64 144 R0
WINDOW 3 -283 111 Left 2
WINDOW 123 0 0 Left 0
WINDOW 39 0 0 Left 0
SYMATTR InstName V1
SYMATTR Value PULSE(5 0 0 1ns 1ns 2s 4s)
SYMBOL voltage 48 144 R0
WINDOW 3 -28 114 Left 2
WINDOW 123 0 0 Left 0
WINDOW 39 0 0 Left 0
SYMATTR InstName V2
SYMATTR Value PULSE(5 0 0 1ns 1ns 1s 2s)
SYMBOL LED 560 80 R270
WINDOW 0 72 32 VTop 2
WINDOW 3 0 32 VBottom 2
SYMATTR InstName f1
SYMBOL 74HCT\\74hct00 288 -32 R0
SYMATTR InstName U3
SYMBOL 74HCT\\74hct00 416 0 R0
SYMATTR InstName U1
SYMBOL res 576 48 R90
WINDOW 0 0 56 VBottom 2
WINDOW 3 32 56 VTop 2
SYMATTR InstName R1
SYMATTR Value 9k
SYMBOL 74HCT\\74hct00 288 48 R0
SYMATTR InstName U2
SYMBOL 74HCT\\74hct04 -176 48 R270
SYMATTR InstName U4
SYMBOL 74HCT\\74hct04 32 48 R270
SYMATTR InstName U5
TEXT -348 278 Left 2 !.tran 4s
TEXT 160 216 Left 2 !.LIB 74HCT.LIB
