* Transistores BD135/BD137/BD139. Transistores NPN Descargados de ON Semiconductor

.MODEL QBD135 NPN (IS=1e-09 BF=222.664 NF=0.85 VAF=36.4079 IKF=0.166126 ISE=5.03418e-09 NE=1.45313 BR=1.35467 NR=1.33751 VAR=142.931 IKR=1.66126 ISC=5.02557e-09 NC=3.10227 RB=26.9143 IRB=0.1 RBM=0.1 RE=0.000472454 RC=1.04109 XTB=0.727762 XTI=1.04311 EG=1.05 CJE=1e-11 VJE=0.75 MJE=0.33 TF=1e-09 XTF=1 VTF=10 ITF=0.01 CJC=1e-11 VJC=0.75 MJC=0.33 XCJC=0.9 FC=0.5 CJS=0 VJS=0.75 MJS=0.5 TR=1e-07 PTF=0 KF=0 AF=1)

.MODEL QBD137 NPN (IS=1e-09 BF=222.664 NF=0.85 VAF=36.4079 IKF=0.166126 ISE=5.03418e-09 NE=1.45313 BR=1.35467 NR=1.33751 VAR=142.931 IKR=1.66126 ISC=5.02557e-09 NC=3.10227 RB=26.9143 IRB=0.1 RBM=0.1 RE=0.000472454 RC=1.04109 XTB=0.727762 XTI=1.04311 EG=1.05 CJE=1e-11 VJE=0.75 MJE=0.33 TF=1e-09 XTF=1 VTF=10 ITF=0.01 CJC=1e-11 VJC=0.75 MJC=0.33 XCJC=0.9 FC=0.5 CJS=0 VJS=0.75 MJS=0.5 TR=1e-07 PTF=0 KF=0 AF=1)

.MODEL QBD139 NPN (IS=1e-09 BF=222.664 NF=0.85 VAF=36.4079 IKF=0.166126 ISE=5.03418e-09 NE=1.45313 BR=1.35467 NR=1.33751 VAR=142.931 IKR=1.66126 ISC=5.02557e-09 NC=3.10227 RB=26.9143 IRB=0.1 RBM=0.1 RE=0.000472454 RC=1.04109 XTB=0.727762 XTI=1.04311 EG=1.05 CJE=1e-11 VJE=0.75 MJE=0.33 TF=1e-09 XTF=1 VTF=10 ITF=0.01 CJC=1e-11 VJC=0.75 MJC=0.33 XCJC=0.9 FC=0.5 CJS=0 VJS=0.75 MJS=0.5 TR=1e-07 PTF=0 KF=0 AF=1)

* Transistores BD136/BD138/BD140. Transistores PNP Descargados de ON Semiconductor

.MODEL QBD136 PNP (IS=1e-09 BF=681.414 NF=0.85 VAF=10 IKF=0.196957 ISE=1e-08 NE=1.57381 BR=56.5761 NR=1.5 VAR=0.975138 IKR=0.952908 ISC=1e-08 NC=3.58666 RB=40.4245 IRB=0.1 RBM=0.106663 RE=0.00034585 RC=1.31191 XTB=22.4074 XTI=1 EG=1.05 CJE=1e-11 VJE=0.75 MJE=0.33 TF=1e-09 XTF=1 VTF=10 ITF=0.01 CJC=1e-11 VJC=0.75 MJC=0.33 XCJC=0.9 FC=0.5 CJS=0 VJS=0.75 MJS=0.5 TR=1e-07 PTF=0 KF=0 AF=1)

.MODEL QBD138 PNP (IS=1e-09 BF=958.725 NF=0.85 VAF=10 NR=1.5 VAR=0.677963 IKR=0.975792 ISC=1e-08 NC=3.59606 RB=40.3654 IRB=0.1 RBM=0.106734 RE=0.000344272 RC=0.879287 XTB=15.864 XTI=1 EG=1.05 CJE=1e-11 VJE=0.75 MJE=0.33 TF=1e-09 XTF=1 VTF=10 ITF=0.01 CJC=1e-11 VJC=0.75 MJC=0.33 XCJC=0.9 FC=0.5 CJS=0 VJS=0.75 MJS=0.5 TR=1e-07 PTF=0 KF=0 AF=1)

.MODEL QBD140 pnp (IS=1e-09 BF=650.842 NF=0.85 VAF=10 IKF=0.0950125 ISE=1e-08 NE=1.54571 BR=56.177 NR=1.5 VAR=2.11267 IKR=0.950125 ISC=1e-08 NC=3.58527 RB=41.7566 IRB=0.1 RBM=0.108893 RE=0.000347052 RC=1.32566 XTB=19.5239 XTI=1 EG=1.05 CJE=1e-11 VJE=0.75 MJE=0.33 TF=1e-09 XTF=1 VTF=10 ITF=0.01 CJC=1e-11 VJC=0.75 MJC=0.33 XCJC=0.9 FC=0.5 CJS=0 VJS=0.75 MJS=0.5 TR=1e-07 PTF=0 KF=0 AF=1)

