Version 4
SHEET 1 880 680
WIRE 272 32 176 32
WIRE 352 32 272 32
WIRE 176 144 176 96
WIRE 176 240 176 224
WIRE 352 256 352 32
WIRE 176 304 176 240
WIRE -64 352 -256 352
WIRE 112 352 16 352
WIRE -256 400 -256 352
WIRE -256 544 -256 480
WIRE 176 544 176 400
WIRE 176 544 -256 544
WIRE 352 544 352 336
WIRE 352 544 176 544
FLAG 176 544 0
FLAG 272 32 Uc
FLAG -256 352 Ue
FLAG 176 240 uce
SYMBOL LED 160 32 R0
SYMATTR InstName D
SYMATTR Value QTLP690C
SYMBOL res 160 128 R0
SYMATTR InstName Rc
SYMATTR Value 100
SYMBOL npn 112 304 R0
SYMATTR InstName Q
SYMATTR Value QBD137
SYMBOL res 32 336 R90
WINDOW 0 0 56 VBottom 2
WINDOW 3 32 56 VTop 2
SYMATTR InstName Rb
SYMATTR Value 10k
SYMBOL voltage 352 240 R0
WINDOW 123 0 0 Left 0
WINDOW 39 0 0 Left 0
SYMATTR InstName V2
SYMATTR Value SINE(5 5 10)
SYMBOL current -256 480 R180
WINDOW 0 24 80 Left 2
WINDOW 3 24 0 Left 2
WINDOW 123 0 0 Left 0
WINDOW 39 0 0 Left 0
SYMATTR InstName Ib
SYMATTR Value 110µ
TEXT -224 168 Left 2 !.LIB BIPOLARES.lib
TEXT -224 200 Left 2 !.tran 0.2s
