Version 4
SHEET 1 880 680
WIRE -240 96 -240 0
WIRE -176 96 -176 32
WIRE -112 96 -112 64
FLAG -240 176 0
FLAG -176 176 0
FLAG -112 176 0
FLAG -48 176 0
FLAG -240 0 A
FLAG -176 32 B
FLAG -112 64 C
FLAG -48 96 D
SYMBOL voltage -240 80 R0
WINDOW 3 24 96 Invisible 2
WINDOW 123 0 0 Left 0
WINDOW 39 0 0 Left 0
SYMATTR Value PULSE(1V 0V 0s 1ns 1ns 1s 2s)
SYMATTR InstName V1
SYMBOL voltage -176 80 R0
WINDOW 3 24 96 Invisible 2
WINDOW 123 0 0 Left 0
WINDOW 39 0 0 Left 0
SYMATTR Value PULSE(1V 0V 0s 1ns 1ns 2s 4s)
SYMATTR InstName V2
SYMBOL voltage -112 80 R0
WINDOW 3 24 96 Invisible 2
WINDOW 123 0 0 Left 0
WINDOW 39 0 0 Left 0
SYMATTR Value PULSE(1V 0V 0s 1ns 1ns 4s 8s)
SYMATTR InstName V3
SYMBOL voltage -48 80 R0
WINDOW 3 24 96 Invisible 2
WINDOW 123 0 0 Left 0
WINDOW 39 0 0 Left 0
SYMATTR Value PULSE(1V 0V 0s 1ns 1ns 8s 16s)
SYMATTR InstName V4
SYMBOL Digital\\and 128 -112 R0
SYMATTR InstName A1
SYMBOL Digital\\and 128 -32 R0
SYMATTR InstName A2
TEXT -272 208 Left 2 !.tran 16s
